# generated using pymatgen
data_K49Mg49Cr2Cl153
_symmetry_space_group_name_H-M   'P 1'
_cell_length_a   21.60300000
_cell_length_b   21.60300000
_cell_length_c   21.60300000
_cell_angle_alpha   90.00000000
_cell_angle_beta   90.00000000
_cell_angle_gamma   90.00000000
_symmetry_Int_Tables_number   1
_chemical_formula_structural   K49Mg49Cr2Cl153
_chemical_formula_sum   'K49 Mg49 Cr2 Cl153'
_cell_volume   10081.89562323
_cell_formula_units_Z   1
loop_
 _symmetry_equiv_pos_site_id
 _symmetry_equiv_pos_as_xyz
  1  'x, y, z'
loop_
 _atom_site_type_symbol
 _atom_site_label
 _atom_site_symmetry_multiplicity
 _atom_site_fract_x
 _atom_site_fract_y
 _atom_site_fract_z
 _atom_site_occupancy
  Cr  Cr0  1  0.95896700  0.25213271  0.26462001  1
  Cr  Cr1  1  0.70654701  0.95954909  0.26079545  1
  Mg  Mg2  1  0.65739698  0.74363686  0.26745271  1
  Mg  Mg3  1  0.97126506  0.89163760  0.54127084  1
  Mg  Mg4  1  0.77727311  0.71853983  0.66265028  1
  Mg  Mg5  1  0.10845781  0.86267995  0.60976415  1
  Mg  Mg6  1  0.84213975  0.27918812  0.34892978  1
  Mg  Mg7  1  0.55861570  0.56011336  0.91792621  1
  Mg  Mg8  1  0.93247392  0.37714280  0.66226357  1
  Mg  Mg9  1  0.31107939  0.11342369  0.61255520  1
  Mg  Mg10  1  0.88613600  0.72557024  0.20786585  1
  Mg  Mg11  1  0.93742226  0.13193830  0.92837569  1
  Mg  Mg12  1  0.06260098  0.56463681  0.83404435  1
  Mg  Mg13  1  0.19976064  0.77147507  0.26171735  1
  Mg  Mg14  1  0.84278003  0.92870708  0.17240240  1
  Mg  Mg15  1  0.58466884  0.11157765  0.79886095  1
  Mg  Mg16  1  0.83711170  0.24104226  0.58784882  1
  Mg  Mg17  1  0.51934940  0.05570300  0.64104828  1
  Mg  Mg18  1  0.24070689  0.45877503  0.24622562  1
  Mg  Mg19  1  0.31628839  0.57691848  0.41662746  1
  Mg  Mg20  1  0.20372444  0.51937134  0.89571397  1
  Mg  Mg21  1  0.35216937  0.91122608  0.92384789  1
  Mg  Mg22  1  0.04615266  0.83138134  0.88318595  1
  Mg  Mg23  1  0.50977929  0.44433333  0.18021937  1
  Mg  Mg24  1  0.18801463  0.04679160  0.67630348  1
  Mg  Mg25  1  0.73531908  0.10603185  0.64703560  1
  Mg  Mg26  1  0.40328797  0.89035902  0.14792871  1
  Mg  Mg27  1  0.12552034  0.11960667  0.28276355  1
  Mg  Mg28  1  0.55888386  0.49217849  0.72781771  1
  Mg  Mg29  1  0.32621242  0.09133426  0.03069236  1
  Mg  Mg30  1  0.70968546  0.44842776  0.04079748  1
  Mg  Mg31  1  0.27728746  0.43758191  0.54322978  1
  Mg  Mg32  1  0.42353145  0.41405022  0.97750678  1
  Mg  Mg33  1  0.02347026  0.94610480  0.02093723  1
  Mg  Mg34  1  0.46799445  0.80443082  0.73853414  1
  Mg  Mg35  1  0.35498366  0.40998699  0.78329704  1
  Mg  Mg36  1  0.95094084  0.50284011  0.45431931  1
  Mg  Mg37  1  0.63138735  0.09954654  0.15287414  1
  Mg  Mg38  1  0.53019789  0.79892075  0.02700074  1
  Mg  Mg39  1  0.35181669  0.74472620  0.13393941  1
  Mg  Mg40  1  0.43358881  0.71057548  0.85802782  1
  Mg  Mg41  1  0.44283581  0.12583484  0.16642702  1
  Mg  Mg42  1  0.17315998  0.94649988  0.31340050  1
  Mg  Mg43  1  0.27265560  0.76942290  0.42082146  1
  Mg  Mg44  1  0.89916350  0.06914174  0.57396195  1
  Mg  Mg45  1  0.39699782  0.39597931  0.38848928  1
  Mg  Mg46  1  0.76945822  0.63370074  0.34836666  1
  Mg  Mg47  1  0.12481748  0.29639092  0.22856381  1
  Mg  Mg48  1  0.78985192  0.43935328  0.53496005  1
  Mg  Mg49  1  0.55878711  0.69500694  0.63156219  1
  Mg  Mg50  1  0.58451447  0.00002065  0.35140624  1
  K  K51  1  0.53418210  0.30025645  0.08952456  1
  K  K52  1  0.36924890  0.59180563  0.00185294  1
  K  K53  1  0.19665445  0.91653122  0.09057978  1
  K  K54  1  0.90914169  0.68337351  0.57126691  1
  K  K55  1  0.35620252  0.98228894  0.41267292  1
  K  K56  1  0.09505198  0.14948702  0.07296061  1
  K  K57  1  0.70698611  0.32834162  0.18552854  1
  K  K58  1  0.11174203  0.96236884  0.84466444  1
  K  K59  1  0.23204208  0.23697602  0.43822339  1
  K  K60  1  0.64066907  0.70026672  0.78878651  1
  K  K61  1  0.30484914  0.07423687  0.24999278  1
  K  K62  1  0.66197269  0.89413693  0.81101694  1
  K  K63  1  0.93508610  0.38709314  0.90689603  1
  K  K64  1  0.12877151  0.63638360  0.56376313  1
  K  K65  1  0.37711582  0.61023224  0.70823575  1
  K  K66  1  0.53359121  0.99445332  0.99261209  1
  K  K67  1  0.70745271  0.70396491  0.01283799  1
  K  K68  1  0.64143091  0.34029889  0.82795848  1
  K  K69  1  0.58633167  0.60103949  0.41809786  1
  K  K70  1  0.76268375  0.85796588  0.97243827  1
  K  K71  1  0.05305314  0.57652261  0.28349484  1
  K  K72  1  0.17424344  0.40777929  0.69932917  1
  K  K73  1  0.94865736  0.24388756  0.06787344  1
  K  K74  1  0.40663806  0.02672643  0.79968898  1
  K  K75  1  0.69145929  0.18031218  0.99228376  1
  K  K76  1  0.84796070  0.10002930  0.16404092  1
  K  K77  1  0.43999685  0.62643934  0.26496005  1
  K  K78  1  0.90367606  0.96779591  0.75847350  1
  K  K79  1  0.51068981  0.27628741  0.31674707  1
  K  K80  1  0.89192376  0.47157242  0.09649539  1
  K  K81  1  0.00688428  0.92229977  0.23589913  1
  K  K82  1  0.32073744  0.27033269  0.16166097  1
  K  K83  1  0.23592672  0.19975406  0.83231343  1
  K  K84  1  0.93737527  0.22442554  0.78599417  1
  K  K85  1  0.97092557  0.72007786  0.78270374  1
  K  K86  1  0.44120835  0.24185169  0.86873332  1
  K  K87  1  0.52489256  0.27921455  0.64232505  1
  K  K88  1  0.95110786  0.67871921  0.03306943  1
  K  K89  1  0.20261510  0.61019456  0.15210059  1
  K  K90  1  0.85254821  0.88414081  0.38577318  1
  K  K91  1  0.76755617  0.13942309  0.41408559  1
  K  K92  1  0.62976684  0.37061598  0.37133245  1
  K  K93  1  0.66309702  0.92226112  0.62640430  1
  K  K94  1  0.91837305  0.52482498  0.70241439  1
  K  K95  1  0.17362001  0.71295630  0.96880748  1
  K  K96  1  0.46607031  0.81720113  0.45284025  1
  K  K97  1  0.27573115  0.86175809  0.68493302  1
  K  K98  1  0.66365107  0.59586752  0.14644299  1
  K  K99  1  0.06071198  0.10716405  0.46730982  1
  Cl  Cl100  1  0.92649405  0.35640226  0.29651516  1
  Cl  Cl101  1  0.51995436  0.98290603  0.55048229  1
  Cl  Cl102  1  0.52247054  0.78206485  0.82743050  1
  Cl  Cl103  1  0.96632570  0.89196135  0.84118048  1
  Cl  Cl104  1  0.91285354  0.43874985  0.55235782  1
  Cl  Cl105  1  0.43316461  0.46939721  0.71190960  1
  Cl  Cl106  1  0.40040013  0.88167194  0.75183502  1
  Cl  Cl107  1  0.58688344  0.87383734  0.96186428  1
  Cl  Cl108  1  0.02501176  0.72760612  0.89733005  1
  Cl  Cl109  1  0.58596334  0.67368162  0.27216877  1
  Cl  Cl110  1  0.28684224  0.00690251  0.68928089  1
  Cl  Cl111  1  0.17386840  0.55691626  0.99604532  1
  Cl  Cl112  1  0.05942073  0.02002398  0.31432926  1
  Cl  Cl113  1  0.31401648  0.52547993  0.30683808  1
  Cl  Cl114  1  0.80508874  0.59513355  0.66330162  1
  Cl  Cl115  1  0.43300653  0.77334143  0.20051808  1
  Cl  Cl116  1  0.93562084  0.87224362  0.03448174  1
  Cl  Cl117  1  0.42928751  0.42314202  0.10134273  1
  Cl  Cl118  1  0.40604342  0.18676962  0.07676587  1
  Cl  Cl119  1  0.86667597  0.67526700  0.32833185  1
  Cl  Cl120  1  0.13945420  0.49699190  0.19911799  1
  Cl  Cl121  1  0.25524473  0.66444702  0.44243267  1
  Cl  Cl122  1  0.16244943  0.66718974  0.26544596  1
  Cl  Cl123  1  0.98273587  0.10697449  0.04483771  1
  Cl  Cl124  1  0.00333213  0.07507439  0.61075207  1
  Cl  Cl125  1  0.47116563  0.51033963  0.95439698  1
  Cl  Cl126  1  0.28724117  0.33071782  0.75614493  1
  Cl  Cl127  1  0.49770773  0.08798417  0.88097010  1
  Cl  Cl128  1  0.93510040  0.27863125  0.61289409  1
  Cl  Cl129  1  0.39377087  0.03410744  0.12061584  1
  Cl  Cl130  1  0.77362167  0.72725733  0.55995121  1
  Cl  Cl131  1  0.18765658  0.02464880  0.25072592  1
  Cl  Cl132  1  0.69837398  0.71232796  0.37889011  1
  Cl  Cl133  1  0.37801282  0.74215058  0.66268393  1
  Cl  Cl134  1  0.16333037  0.09739388  0.59216160  1
  Cl  Cl135  1  0.19291427  0.78648197  0.60518858  1
  Cl  Cl136  1  0.60215044  0.94924043  0.24987664  1
  Cl  Cl137  1  0.98849803  0.86435490  0.65109721  1
  Cl  Cl138  1  0.97688946  0.38949720  0.03398107  1
  Cl  Cl139  1  0.39165394  0.17438888  0.26010985  1
  Cl  Cl140  1  0.93409693  0.99740985  0.47157302  1
  Cl  Cl141  1  0.02761079  0.42057950  0.66781044  1
  Cl  Cl142  1  0.30221974  0.21197621  0.60452303  1
  Cl  Cl143  1  0.32639513  0.30792774  0.39034560  1
  Cl  Cl144  1  0.99496269  0.70442531  0.19402828  1
  Cl  Cl145  1  0.41859598  0.09244346  0.64719238  1
  Cl  Cl146  1  0.32647577  0.16032472  0.94569537  1
  Cl  Cl147  1  0.48692445  0.34405522  0.44101602  1
  Cl  Cl148  1  0.81715202  0.96875721  0.28754946  1
  Cl  Cl149  1  0.50968037  0.92963218  0.35596065  1
  Cl  Cl150  1  0.68620201  0.96014836  0.36292774  1
  Cl  Cl151  1  0.21856312  0.35169879  0.53468870  1
  Cl  Cl152  1  0.67187043  0.33553400  0.01025557  1
  Cl  Cl153  1  0.48790659  0.89397449  0.08120479  1
  Cl  Cl154  1  0.72612415  0.19871240  0.57505485  1
  Cl  Cl155  1  0.21619294  0.07910577  0.07827154  1
  Cl  Cl156  1  0.30769861  0.74143026  0.25995630  1
  Cl  Cl157  1  0.15006805  0.33437129  0.12624483  1
  Cl  Cl158  1  0.66767148  0.76500324  0.67902824  1
  Cl  Cl159  1  0.03915914  0.60406129  0.72725876  1
  Cl  Cl160  1  0.99084683  0.15192672  0.23119826  1
  Cl  Cl161  1  0.99122358  0.23388363  0.91101884  1
  Cl  Cl162  1  0.60983803  0.48063102  0.02314280  1
  Cl  Cl163  1  0.95374425  0.07939601  0.83211522  1
  Cl  Cl164  1  0.72451535  0.84916039  0.26314961  1
  Cl  Cl165  1  0.49808253  0.69907013  0.97757636  1
  Cl  Cl166  1  0.98346322  0.57496801  0.89519386  1
  Cl  Cl167  1  0.91422539  0.40614058  0.77467537  1
  Cl  Cl168  1  0.54835143  0.71308064  0.52881734  1
  Cl  Cl169  1  0.83825284  0.53078239  0.48232745  1
  Cl  Cl170  1  0.08913720  0.82632333  0.78395153  1
  Cl  Cl171  1  0.60685215  0.20610855  0.20302430  1
  Cl  Cl172  1  0.07059672  0.96895802  0.12381641  1
  Cl  Cl173  1  0.80524645  0.17309878  0.69609763  1
  Cl  Cl174  1  0.76761200  0.00342860  0.71960131  1
  Cl  Cl175  1  0.80710841  0.78895241  0.07035527  1
  Cl  Cl176  1  0.86053613  0.62533236  0.13065375  1
  Cl  Cl177  1  0.73098051  0.96243790  0.15078128  1
  Cl  Cl178  1  0.02403083  0.28535236  0.18215202  1
  Cl  Cl179  1  0.64371874  0.61774332  0.92824108  1
  Cl  Cl180  1  0.47067417  0.40304462  0.29906930  1
  Cl  Cl181  1  0.43483039  0.40234463  0.85597723  1
  Cl  Cl182  1  0.33334379  0.84988048  0.05745290  1
  Cl  Cl183  1  0.92074031  0.20923233  0.35991575  1
  Cl  Cl184  1  0.14784646  0.80261200  0.35670462  1
  Cl  Cl185  1  0.16479396  0.14440406  0.37978494  1
  Cl  Cl186  1  0.54778605  0.13151697  0.05870615  1
  Cl  Cl187  1  0.91037009  0.17361177  0.52931505  1
  Cl  Cl188  1  0.64785363  0.18490552  0.83889418  1
  Cl  Cl189  1  0.79210424  0.37696676  0.64021020  1
  Cl  Cl190  1  0.32094635  0.09070175  0.48934708  1
  Cl  Cl191  1  0.04421293  0.01025830  0.93565741  1
  Cl  Cl192  1  0.54820766  0.82901560  0.65874911  1
  Cl  Cl193  1  0.51062033  0.19092520  0.73707883  1
  Cl  Cl194  1  0.24057566  0.50495232  0.46287789  1
  Cl  Cl195  1  0.32455927  0.71663593  0.90430797  1
  Cl  Cl196  1  0.73287613  0.26886576  0.33289062  1
  Cl  Cl197  1  0.58038222  0.74923247  0.11194311  1
  Cl  Cl198  1  0.37785034  0.47103884  0.46805129  1
  Cl  Cl199  1  0.62561797  0.09872795  0.62737847  1
  Cl  Cl200  1  0.43364533  0.82764718  0.93110258  1
  Cl  Cl201  1  0.68766560  0.06566833  0.25910179  1
  Cl  Cl202  1  0.78116118  0.48426135  0.97728121  1
  Cl  Cl203  1  0.54022511  0.04998445  0.19921242  1
  Cl  Cl204  1  0.33899681  0.93283238  0.23353386  1
  Cl  Cl205  1  0.95830463  0.48592237  0.34929510  1
  Cl  Cl206  1  0.81440767  0.34824821  0.43497857  1
  Cl  Cl207  1  0.83944045  0.80347956  0.71172050  1
  Cl  Cl208  1  0.38302518  0.01545040  0.92244971  1
  Cl  Cl209  1  0.56108253  0.01426603  0.74644952  1
  Cl  Cl210  1  0.06237851  0.24438601  0.31959714  1
  Cl  Cl211  1  0.27651201  0.48235606  0.63721918  1
  Cl  Cl212  1  0.45196315  0.61601227  0.83405768  1
  Cl  Cl213  1  0.51315595  0.68952243  0.72404129  1
  Cl  Cl214  1  0.30042813  0.50385312  0.83829945  1
  Cl  Cl215  1  0.57896704  0.39250160  0.69768407  1
  Cl  Cl216  1  0.41495700  0.63146151  0.40973893  1
  Cl  Cl217  1  0.20358376  0.36561954  0.30433245  1
  Cl  Cl218  1  0.57820349  0.36788506  0.19635342  1
  Cl  Cl219  1  0.26451405  0.89714720  0.87266185  1
  Cl  Cl220  1  0.89377758  0.83507976  0.22961223  1
  Cl  Cl221  1  0.02078929  0.59938624  0.50816271  1
  Cl  Cl222  1  0.13432088  0.94476772  0.68308166  1
  Cl  Cl223  1  0.31453969  0.42819585  0.98304374  1
  Cl  Cl224  1  0.36384419  0.62996848  0.14813304  1
  Cl  Cl225  1  0.92151062  0.98908235  0.13922085  1
  Cl  Cl226  1  0.89861691  0.81408462  0.49905657  1
  Cl  Cl227  1  0.19070379  0.09896311  0.76451854  1
  Cl  Cl228  1  0.30003481  0.44005860  0.16102861  1
  Cl  Cl229  1  0.57192612  0.10478600  0.38617178  1
  Cl  Cl230  1  0.77163459  0.76744360  0.89177480  1
  Cl  Cl231  1  0.79224464  0.06498394  0.55282215  1
  Cl  Cl232  1  0.73114952  0.11643934  0.11410355  1
  Cl  Cl233  1  0.58521187  0.49353520  0.83971731  1
  Cl  Cl234  1  0.84656719  0.25947308  0.21984877  1
  Cl  Cl235  1  0.12304148  0.46263551  0.86191788  1
  Cl  Cl236  1  0.65914720  0.41642827  0.51344471  1
  Cl  Cl237  1  0.16650794  0.61159969  0.84602041  1
  Cl  Cl238  1  0.51783461  0.32748206  0.96716942  1
  Cl  Cl239  1  0.73494755  0.69746781  0.19703101  1
  Cl  Cl240  1  0.65417905  0.02717993  0.86389483  1
  Cl  Cl241  1  0.18615831  0.20734227  0.22236120  1
  Cl  Cl242  1  0.83634097  0.14961005  0.96935754  1
  Cl  Cl243  1  0.71442415  0.54187506  0.34070291  1
  Cl  Cl244  1  0.24968453  0.74216891  0.09229982  1
  Cl  Cl245  1  0.11801268  0.85677832  0.96803773  1
  Cl  Cl246  1  0.60070125  0.58200597  0.68575781  1
  Cl  Cl247  1  0.30917664  0.86164709  0.46927066  1
  Cl  Cl248  1  0.15624163  0.87678248  0.23357728  1
  Cl  Cl249  1  0.07530065  0.89916873  0.49909804  1
  Cl  Cl250  1  0.21369009  0.95707323  0.40448317  1
  Cl  Cl251  1  0.75733042  0.46528973  0.14644225  1
  Cl  Cl252  1  0.55057950  0.53708966  0.21075235  1
