# generated using pymatgen
data_K49Mg49Cr2Cl153
_symmetry_space_group_name_H-M   'P 1'
_cell_length_a   21.60300000
_cell_length_b   21.60300000
_cell_length_c   21.60300000
_cell_angle_alpha   90.00000000
_cell_angle_beta   90.00000000
_cell_angle_gamma   90.00000000
_symmetry_Int_Tables_number   1
_chemical_formula_structural   K49Mg49Cr2Cl153
_chemical_formula_sum   'K49 Mg49 Cr2 Cl153'
_cell_volume   10081.89562323
_cell_formula_units_Z   1
loop_
 _symmetry_equiv_pos_site_id
 _symmetry_equiv_pos_as_xyz
  1  'x, y, z'
loop_
 _atom_site_type_symbol
 _atom_site_label
 _atom_site_symmetry_multiplicity
 _atom_site_fract_x
 _atom_site_fract_y
 _atom_site_fract_z
 _atom_site_occupancy
  Cr  Cr0  1  0.95986669  0.24874716  0.26547368  1
  Cr  Cr1  1  0.70540309  0.96083752  0.25854803  1
  Mg  Mg2  1  0.65682239  0.74552673  0.26918326  1
  Mg  Mg3  1  0.97017891  0.88825376  0.53678753  1
  Mg  Mg4  1  0.77709300  0.71612882  0.66413563  1
  Mg  Mg5  1  0.11027635  0.86544929  0.60950900  1
  Mg  Mg6  1  0.84081873  0.28035504  0.34517076  1
  Mg  Mg7  1  0.55950808  0.56216604  0.91904768  1
  Mg  Mg8  1  0.93103018  0.37835375  0.66456599  1
  Mg  Mg9  1  0.30944781  0.11206420  0.60989094  1
  Mg  Mg10  1  0.88781327  0.72778572  0.20645943  1
  Mg  Mg11  1  0.93405596  0.13289566  0.92940244  1
  Mg  Mg12  1  0.06200949  0.56056575  0.83566884  1
  Mg  Mg13  1  0.20050905  0.77322923  0.26225293  1
  Mg  Mg14  1  0.83918141  0.93127367  0.17300287  1
  Mg  Mg15  1  0.58505985  0.11622765  0.80019692  1
  Mg  Mg16  1  0.83644739  0.24181567  0.58617437  1
  Mg  Mg17  1  0.52020229  0.05348118  0.64101856  1
  Mg  Mg18  1  0.24277498  0.45966755  0.24785659  1
  Mg  Mg19  1  0.31438291  0.57927043  0.41664542  1
  Mg  Mg20  1  0.20985271  0.51893635  0.89115350  1
  Mg  Mg21  1  0.34831440  0.90794158  0.92499435  1
  Mg  Mg22  1  0.04844105  0.83061964  0.88116257  1
  Mg  Mg23  1  0.50962288  0.44604111  0.18024024  1
  Mg  Mg24  1  0.18394783  0.04661691  0.67799361  1
  Mg  Mg25  1  0.73373749  0.10772110  0.64816998  1
  Mg  Mg26  1  0.40454937  0.88807471  0.14552604  1
  Mg  Mg27  1  0.12473490  0.11960302  0.28518946  1
  Mg  Mg28  1  0.55988460  0.48895528  0.72749854  1
  Mg  Mg29  1  0.32388955  0.08845415  0.02712308  1
  Mg  Mg30  1  0.70953895  0.44520210  0.03552196  1
  Mg  Mg31  1  0.28006462  0.43788113  0.54304393  1
  Mg  Mg32  1  0.42520830  0.41545045  0.97938842  1
  Mg  Mg33  1  0.02470731  0.94507221  0.02290798  1
  Mg  Mg34  1  0.46971360  0.80654881  0.73613808  1
  Mg  Mg35  1  0.35600213  0.40847841  0.78500602  1
  Mg  Mg36  1  0.95120701  0.50284831  0.45394223  1
  Mg  Mg37  1  0.62971703  0.10135092  0.15277910  1
  Mg  Mg38  1  0.53182817  0.79630149  0.02872823  1
  Mg  Mg39  1  0.35289904  0.74071934  0.13582364  1
  Mg  Mg40  1  0.43493140  0.71490867  0.85569551  1
  Mg  Mg41  1  0.44365537  0.12387941  0.16363001  1
  Mg  Mg42  1  0.17180896  0.94562482  0.31244137  1
  Mg  Mg43  1  0.27129700  0.76953284  0.42298287  1
  Mg  Mg44  1  0.89815697  0.06843887  0.57611461  1
  Mg  Mg45  1  0.39866574  0.39519201  0.38641332  1
  Mg  Mg46  1  0.76879341  0.63375392  0.34179901  1
  Mg  Mg47  1  0.12202014  0.29579392  0.23371722  1
  Mg  Mg48  1  0.78989566  0.43963612  0.53550183  1
  Mg  Mg49  1  0.56056987  0.69594931  0.63277077  1
  Mg  Mg50  1  0.58361015  0.00145022  0.35333949  1
  K  K51  1  0.53276026  0.29921992  0.08938555  1
  K  K52  1  0.37066681  0.58968305  0.00175693  1
  K  K53  1  0.19652576  0.91906082  0.09001754  1
  K  K54  1  0.91181021  0.68603597  0.57238870  1
  K  K55  1  0.35757085  0.98113105  0.41460700  1
  K  K56  1  0.09720742  0.14878822  0.07563352  1
  K  K57  1  0.70311392  0.32844753  0.18556478  1
  K  K58  1  0.11088418  0.95994598  0.84427279  1
  K  K59  1  0.23191094  0.23755284  0.43948970  1
  K  K60  1  0.64508661  0.70130533  0.78876966  1
  K  K61  1  0.30257085  0.07349192  0.25204722  1
  K  K62  1  0.66039124  0.89515785  0.81319659  1
  K  K63  1  0.93564065  0.38932398  0.90854682  1
  K  K64  1  0.13054826  0.63783192  0.56573050  1
  K  K65  1  0.37714063  0.61203217  0.70593103  1
  K  K66  1  0.53149002  0.99641355  0.99548706  1
  K  K67  1  0.70643860  0.70309351  0.01272726  1
  K  K68  1  0.64369231  0.34310628  0.82897824  1
  K  K69  1  0.58599287  0.60071860  0.41661246  1
  K  K70  1  0.76389284  0.85834616  0.97245910  1
  K  K71  1  0.05440416  0.57695899  0.28479845  1
  K  K72  1  0.17266347  0.40615891  0.69988849  1
  K  K73  1  0.94885886  0.24147929  0.06942726  1
  K  K74  1  0.40676161  0.02952011  0.79853631  1
  K  K75  1  0.69119650  0.18393140  0.98938791  1
  K  K76  1  0.84815114  0.10018581  0.16461371  1
  K  K77  1  0.43786280  0.62536213  0.26583123  1
  K  K78  1  0.90536356  0.96661487  0.75640767  1
  K  K79  1  0.50848253  0.27743577  0.31550595  1
  K  K80  1  0.89277647  0.47045572  0.09516484  1
  K  K81  1  0.00892677  0.92401245  0.23709193  1
  K  K82  1  0.32093107  0.27193593  0.15959293  1
  K  K83  1  0.23465264  0.20385539  0.83317831  1
  K  K84  1  0.93977892  0.22332917  0.78339930  1
  K  K85  1  0.97156400  0.72331167  0.78287539  1
  K  K86  1  0.44158145  0.24087576  0.86510730  1
  K  K87  1  0.52574064  0.28019145  0.64210105  1
  K  K88  1  0.95236097  0.67808434  0.03263973  1
  K  K89  1  0.20519275  0.60944040  0.15271286  1
  K  K90  1  0.85239420  0.88026015  0.38654877  1
  K  K91  1  0.76820071  0.14023899  0.41577795  1
  K  K92  1  0.63005902  0.37105583  0.37148938  1
  K  K93  1  0.66291825  0.92336527  0.62628640  1
  K  K94  1  0.91674504  0.52739564  0.70173272  1
  K  K95  1  0.17374564  0.71357705  0.97027867  1
  K  K96  1  0.46402027  0.81673420  0.45111943  1
  K  K97  1  0.27661505  0.86021080  0.68681466  1
  K  K98  1  0.66280817  0.59654941  0.14533986  1
  K  K99  1  0.06214081  0.10916900  0.46779549  1
  Cl  Cl100  1  0.92441666  0.35971083  0.29603407  1
  Cl  Cl101  1  0.51800065  0.98181989  0.54966157  1
  Cl  Cl102  1  0.52105203  0.78054853  0.83050470  1
  Cl  Cl103  1  0.96658376  0.89282660  0.84295653  1
  Cl  Cl104  1  0.91251687  0.44126941  0.55101815  1
  Cl  Cl105  1  0.43622515  0.46888131  0.71066046  1
  Cl  Cl106  1  0.39865398  0.88156043  0.75277406  1
  Cl  Cl107  1  0.58762297  0.87346202  0.95891043  1
  Cl  Cl108  1  0.02460343  0.72865408  0.89645730  1
  Cl  Cl109  1  0.58458191  0.67563834  0.27301217  1
  Cl  Cl110  1  0.28623821  0.00172957  0.68857390  1
  Cl  Cl111  1  0.17381049  0.55669490  0.99508772  1
  Cl  Cl112  1  0.06001949  0.01924446  0.30956103  1
  Cl  Cl113  1  0.31292108  0.52422298  0.30554479  1
  Cl  Cl114  1  0.80202583  0.59561029  0.66430514  1
  Cl  Cl115  1  0.43398306  0.77271087  0.20392932  1
  Cl  Cl116  1  0.93926992  0.87270476  0.03444883  1
  Cl  Cl117  1  0.42968157  0.42152109  0.10136472  1
  Cl  Cl118  1  0.40578656  0.18611744  0.07785076  1
  Cl  Cl119  1  0.86631759  0.67733731  0.32514641  1
  Cl  Cl120  1  0.14055303  0.49549026  0.20037277  1
  Cl  Cl121  1  0.25549567  0.66324686  0.44399352  1
  Cl  Cl122  1  0.15955289  0.66490103  0.26794853  1
  Cl  Cl123  1  0.98540721  0.10760103  0.04303277  1
  Cl  Cl124  1  0.00502157  0.07340254  0.61012850  1
  Cl  Cl125  1  0.46898551  0.50938814  0.95481947  1
  Cl  Cl126  1  0.28866806  0.32911614  0.75618845  1
  Cl  Cl127  1  0.49772231  0.08920724  0.88290881  1
  Cl  Cl128  1  0.93835282  0.27839814  0.61667384  1
  Cl  Cl129  1  0.39632315  0.03254002  0.12141286  1
  Cl  Cl130  1  0.77294695  0.72768754  0.55929908  1
  Cl  Cl131  1  0.18876614  0.02427066  0.25205462  1
  Cl  Cl132  1  0.69816924  0.71307976  0.38042948  1
  Cl  Cl133  1  0.37817562  0.74216488  0.66405559  1
  Cl  Cl134  1  0.16535879  0.09625978  0.59214794  1
  Cl  Cl135  1  0.19205333  0.78995038  0.60579586  1
  Cl  Cl136  1  0.60280007  0.94802069  0.24799301  1
  Cl  Cl137  1  0.98739272  0.86672365  0.64987673  1
  Cl  Cl138  1  0.97838564  0.38837786  0.03064922  1
  Cl  Cl139  1  0.39166949  0.17260181  0.26209360  1
  Cl  Cl140  1  0.93277772  0.99974513  0.47017937  1
  Cl  Cl141  1  0.02652321  0.42017738  0.66804597  1
  Cl  Cl142  1  0.30273643  0.21584706  0.60272795  1
  Cl  Cl143  1  0.32856724  0.30826964  0.39014359  1
  Cl  Cl144  1  0.99505300  0.70812984  0.19501949  1
  Cl  Cl145  1  0.42009577  0.09500662  0.64583877  1
  Cl  Cl146  1  0.32324131  0.16293075  0.94517720  1
  Cl  Cl147  1  0.48791862  0.34328589  0.44179517  1
  Cl  Cl148  1  0.81514660  0.96666102  0.28661630  1
  Cl  Cl149  1  0.51275878  0.92696454  0.35626297  1
  Cl  Cl150  1  0.68550387  0.96297755  0.36288691  1
  Cl  Cl151  1  0.21823594  0.35063491  0.53246244  1
  Cl  Cl152  1  0.67274818  0.33485798  0.01034194  1
  Cl  Cl153  1  0.48437958  0.89309040  0.08018937  1
  Cl  Cl154  1  0.72607749  0.19830667  0.57268083  1
  Cl  Cl155  1  0.21731167  0.07833023  0.07858677  1
  Cl  Cl156  1  0.30934153  0.74106814  0.26242392  1
  Cl  Cl157  1  0.14941004  0.33245188  0.12842874  1
  Cl  Cl158  1  0.66695894  0.76714632  0.68055423  1
  Cl  Cl159  1  0.04010207  0.60537212  0.72690524  1
  Cl  Cl160  1  0.99160205  0.15138634  0.23159339  1
  Cl  Cl161  1  0.98987340  0.23070935  0.90732982  1
  Cl  Cl162  1  0.60902162  0.48258015  0.02386761  1
  Cl  Cl163  1  0.95320867  0.07828954  0.83241291  1
  Cl  Cl164  1  0.72490663  0.84801393  0.26433620  1
  Cl  Cl165  1  0.49791719  0.69845702  0.97835833  1
  Cl  Cl166  1  0.98517715  0.57746554  0.89415706  1
  Cl  Cl167  1  0.91246207  0.40729010  0.77563727  1
  Cl  Cl168  1  0.54669379  0.71081239  0.53001018  1
  Cl  Cl169  1  0.83975360  0.53004342  0.48174513  1
  Cl  Cl170  1  0.09340300  0.82819220  0.78677341  1
  Cl  Cl171  1  0.60793237  0.20518854  0.20290561  1
  Cl  Cl172  1  0.07429695  0.96994246  0.12559904  1
  Cl  Cl173  1  0.80681702  0.17509577  0.69469264  1
  Cl  Cl174  1  0.76945443  0.00476110  0.71845596  1
  Cl  Cl175  1  0.80910526  0.79037513  0.07104587  1
  Cl  Cl176  1  0.86401065  0.62515229  0.12880169  1
  Cl  Cl177  1  0.73072555  0.96277772  0.15039027  1
  Cl  Cl178  1  0.02493718  0.28364385  0.18252932  1
  Cl  Cl179  1  0.64449581  0.61852969  0.92706351  1
  Cl  Cl180  1  0.47006420  0.40149924  0.29890668  1
  Cl  Cl181  1  0.43531801  0.39840036  0.85284442  1
  Cl  Cl182  1  0.33469995  0.84843188  0.05800593  1
  Cl  Cl183  1  0.92192163  0.20646466  0.36198158  1
  Cl  Cl184  1  0.14655640  0.80117340  0.35652243  1
  Cl  Cl185  1  0.16236865  0.14545466  0.37847318  1
  Cl  Cl186  1  0.54798408  0.13305934  0.06055696  1
  Cl  Cl187  1  0.91030315  0.17278531  0.53217377  1
  Cl  Cl188  1  0.65032556  0.18397783  0.83966648  1
  Cl  Cl189  1  0.79347998  0.37682901  0.63676985  1
  Cl  Cl190  1  0.31806707  0.09285150  0.48843985  1
  Cl  Cl191  1  0.04503944  0.01094936  0.93817627  1
  Cl  Cl192  1  0.55001389  0.82970134  0.65697361  1
  Cl  Cl193  1  0.50947169  0.19045489  0.73900606  1
  Cl  Cl194  1  0.24101092  0.50728658  0.46110346  1
  Cl  Cl195  1  0.32458020  0.71893288  0.89977873  1
  Cl  Cl196  1  0.73207647  0.27022363  0.33514928  1
  Cl  Cl197  1  0.57930611  0.74754798  0.11107670  1
  Cl  Cl198  1  0.37790353  0.46945526  0.46653743  1
  Cl  Cl199  1  0.62515970  0.10161417  0.62871078  1
  Cl  Cl200  1  0.43386474  0.82630477  0.93146961  1
  Cl  Cl201  1  0.68668898  0.06412008  0.26168602  1
  Cl  Cl202  1  0.78033912  0.48283785  0.97783016  1
  Cl  Cl203  1  0.54029556  0.04896760  0.19823182  1
  Cl  Cl204  1  0.34004962  0.92796954  0.23311878  1
  Cl  Cl205  1  0.95787645  0.48400829  0.35010739  1
  Cl  Cl206  1  0.81677415  0.34868180  0.43392788  1
  Cl  Cl207  1  0.83885470  0.80435856  0.71184382  1
  Cl  Cl208  1  0.38617437  0.01846619  0.92287696  1
  Cl  Cl209  1  0.55730283  0.01431061  0.74244563  1
  Cl  Cl210  1  0.06417729  0.24447623  0.32120104  1
  Cl  Cl211  1  0.27727218  0.48435703  0.63884447  1
  Cl  Cl212  1  0.45210133  0.61596463  0.83234264  1
  Cl  Cl213  1  0.51474934  0.68831815  0.72601055  1
  Cl  Cl214  1  0.29689455  0.49887951  0.83950461  1
  Cl  Cl215  1  0.58039221  0.38979767  0.69479123  1
  Cl  Cl216  1  0.41531125  0.63123210  0.40736319  1
  Cl  Cl217  1  0.20329320  0.36434176  0.30503916  1
  Cl  Cl218  1  0.58037268  0.36778846  0.19724622  1
  Cl  Cl219  1  0.26079216  0.89655779  0.87071796  1
  Cl  Cl220  1  0.89659177  0.83779179  0.23243059  1
  Cl  Cl221  1  0.02054978  0.59731718  0.50752460  1
  Cl  Cl222  1  0.13436319  0.94273453  0.68543401  1
  Cl  Cl223  1  0.31932630  0.42499357  0.98422057  1
  Cl  Cl224  1  0.36372416  0.63275517  0.14764829  1
  Cl  Cl225  1  0.92290200  0.99014572  0.14150201  1
  Cl  Cl226  1  0.90218650  0.81469102  0.49824585  1
  Cl  Cl227  1  0.19071620  0.09680882  0.76383942  1
  Cl  Cl228  1  0.30194649  0.43783396  0.16139138  1
  Cl  Cl229  1  0.57475207  0.10363866  0.38634574  1
  Cl  Cl230  1  0.77063570  0.76798908  0.88957705  1
  Cl  Cl231  1  0.79143753  0.06728394  0.55298334  1
  Cl  Cl232  1  0.73101370  0.11586835  0.11822247  1
  Cl  Cl233  1  0.58573638  0.49539707  0.83848151  1
  Cl  Cl234  1  0.84516090  0.26120127  0.21883243  1
  Cl  Cl235  1  0.12128408  0.46520641  0.86284937  1
  Cl  Cl236  1  0.65765306  0.41733074  0.51561778  1
  Cl  Cl237  1  0.16630084  0.61240763  0.84646294  1
  Cl  Cl238  1  0.51594658  0.32894839  0.96775184  1
  Cl  Cl239  1  0.73264037  0.69458765  0.19989812  1
  Cl  Cl240  1  0.65383854  0.02826839  0.86526862  1
  Cl  Cl241  1  0.18519391  0.20815003  0.22058895  1
  Cl  Cl242  1  0.83649151  0.14990066  0.96959186  1
  Cl  Cl243  1  0.71572944  0.54146614  0.33965574  1
  Cl  Cl244  1  0.25292223  0.74469148  0.09342591  1
  Cl  Cl245  1  0.11748456  0.85747572  0.96820594  1
  Cl  Cl246  1  0.60062635  0.58089626  0.68739083  1
  Cl  Cl247  1  0.30841652  0.86151678  0.46965533  1
  Cl  Cl248  1  0.15434574  0.87929630  0.23408985  1
  Cl  Cl249  1  0.07612017  0.89773971  0.50084970  1
  Cl  Cl250  1  0.21500454  0.95302245  0.40642272  1
  Cl  Cl251  1  0.75794783  0.46351072  0.14334296  1
  Cl  Cl252  1  0.55138768  0.53498829  0.21093399  1
